/*--------------------------------*- C++ -*----------------------------------*\
| =========                 |                                                 |
| \\      /  F ield         | OpenFOAM: The Open Source CFD Toolbox           |
|  \\    /   O peration     | Version:  5.x                                   |
|   \\  /    A nd           | Web:      www.OpenFOAM.org                      |
|    \\/     M anipulation  |                                                 |
\*---------------------------------------------------------------------------*/
FoamFile
{
    version     2.0;
    format      binary;
    class       polyBoundaryMesh;
    location    "constant/polyMesh";
    object      boundary;
}
// * * * * * * * * * * * * * * * * * * * * * * * * * * * * * * * * * * * * * //

7
(
    front
    {
        type            empty;
        physicalType    patch;
        nFaces          41252;
        startFace       61578;
    }
    back
    {
        type            empty;
        physicalType    patch;
        nFaces          41252;
        startFace       102830;
    }
    exit
    {
        type            patch;
        physicalType    patch;
        nFaces          50;
        startFace       144082;
    }
    bottom
    {
        type            patch;
        physicalType    patch;
        nFaces          50;
        startFace       144132;
    }
    inlet
    {
        type            patch;
        physicalType    patch;
        nFaces          50;
        startFace       144182;
    }
    top
    {
        type            patch;
        physicalType    patch;
        nFaces          50;
        startFace       144232;
    }
    aerofoil
    {
        type            wall;
        physicalType    patch;
        nFaces          400;
        startFace       144282;
    }
)

// ************************************************************************* //
