/*--------------------------------*- C++ -*----------------------------------*\
| =========                 |                                                 |
| \\      /  F ield         | OpenFOAM: The Open Source CFD Toolbox           |
|  \\    /   O peration     | Version:  5.x                                   |
|   \\  /    A nd           | Web:      www.OpenFOAM.org                      |
|    \\/     M anipulation  |                                                 |
\*---------------------------------------------------------------------------*/
FoamFile
{
    version     2.0;
    format      binary;
    class       polyBoundaryMesh;
    location    "constant/polyMesh";
    object      boundary;
}
// * * * * * * * * * * * * * * * * * * * * * * * * * * * * * * * * * * * * * //

7
(
    front
    {
        type            empty;
        physicalType    patch;
        nFaces          38986;
        startFace       58177;
    }
    back
    {
        type            empty;
        physicalType    patch;
        nFaces          38986;
        startFace       97163;
    }
    exit
    {
        type            patch;
        physicalType    patch;
        nFaces          50;
        startFace       136149;
    }
    bottom
    {
        type            patch;
        physicalType    patch;
        nFaces          50;
        startFace       136199;
    }
    inlet
    {
        type            patch;
        physicalType    patch;
        nFaces          50;
        startFace       136249;
    }
    top
    {
        type            patch;
        physicalType    patch;
        nFaces          50;
        startFace       136299;
    }
    aerofoil
    {
        type            wall;
        physicalType    patch;
        nFaces          404;
        startFace       136349;
    }
)

// ************************************************************************* //
