/*--------------------------------*- C++ -*----------------------------------*\
| =========                 |                                                 |
| \\      /  F ield         | OpenFOAM: The Open Source CFD Toolbox           |
|  \\    /   O peration     | Version:  5.x                                   |
|   \\  /    A nd           | Web:      www.OpenFOAM.org                      |
|    \\/     M anipulation  |                                                 |
\*---------------------------------------------------------------------------*/
FoamFile
{
    version     2.0;
    format      binary;
    class       polyBoundaryMesh;
    location    "constant/polyMesh";
    object      boundary;
}
// * * * * * * * * * * * * * * * * * * * * * * * * * * * * * * * * * * * * * //

7
(
    front
    {
        type            empty;
        physicalType    patch;
        nFaces          42146;
        startFace       62909;
    }
    back
    {
        type            empty;
        physicalType    patch;
        nFaces          42146;
        startFace       105055;
    }
    exit
    {
        type            patch;
        physicalType    patch;
        nFaces          50;
        startFace       147201;
    }
    bottom
    {
        type            patch;
        physicalType    patch;
        nFaces          50;
        startFace       147251;
    }
    inlet
    {
        type            patch;
        physicalType    patch;
        nFaces          50;
        startFace       147301;
    }
    top
    {
        type            patch;
        physicalType    patch;
        nFaces          50;
        startFace       147351;
    }
    aerofoil
    {
        type            wall;
        physicalType    patch;
        nFaces          420;
        startFace       147401;
    }
)

// ************************************************************************* //
