/*--------------------------------*- C++ -*----------------------------------*\
| =========                 |                                                 |
| \\      /  F ield         | OpenFOAM: The Open Source CFD Toolbox           |
|  \\    /   O peration     | Version:  5.x                                   |
|   \\  /    A nd           | Web:      www.OpenFOAM.org                      |
|    \\/     M anipulation  |                                                 |
\*---------------------------------------------------------------------------*/
FoamFile
{
    version     2.0;
    format      binary;
    class       polyBoundaryMesh;
    location    "constant/polyMesh";
    object      boundary;
}
// * * * * * * * * * * * * * * * * * * * * * * * * * * * * * * * * * * * * * //

7
(
    front
    {
        type            empty;
        physicalType    patch;
        nFaces          45182;
        startFace       67465;
    }
    back
    {
        type            empty;
        physicalType    patch;
        nFaces          45182;
        startFace       112647;
    }
    exit
    {
        type            patch;
        physicalType    patch;
        nFaces          50;
        startFace       157829;
    }
    bottom
    {
        type            patch;
        physicalType    patch;
        nFaces          50;
        startFace       157879;
    }
    inlet
    {
        type            patch;
        physicalType    patch;
        nFaces          50;
        startFace       157929;
    }
    top
    {
        type            patch;
        physicalType    patch;
        nFaces          50;
        startFace       157979;
    }
    aerofoil
    {
        type            wall;
        physicalType    patch;
        nFaces          416;
        startFace       158029;
    }
)

// ************************************************************************* //
