/*--------------------------------*- C++ -*----------------------------------*\
| =========                 |                                                 |
| \\      /  F ield         | OpenFOAM: The Open Source CFD Toolbox           |
|  \\    /   O peration     | Version:  5.x                                   |
|   \\  /    A nd           | Web:      www.OpenFOAM.org                      |
|    \\/     M anipulation  |                                                 |
\*---------------------------------------------------------------------------*/
FoamFile
{
    version     2.0;
    format      binary;
    class       polyBoundaryMesh;
    location    "constant/polyMesh";
    object      boundary;
}
// * * * * * * * * * * * * * * * * * * * * * * * * * * * * * * * * * * * * * //

7
(
    front
    {
        type            empty;
        physicalType    patch;
        nFaces          39745;
        startFace       59315;
    }
    back
    {
        type            empty;
        physicalType    patch;
        nFaces          39745;
        startFace       99060;
    }
    exit
    {
        type            patch;
        physicalType    patch;
        nFaces          50;
        startFace       138805;
    }
    bottom
    {
        type            patch;
        physicalType    patch;
        nFaces          50;
        startFace       138855;
    }
    inlet
    {
        type            patch;
        physicalType    patch;
        nFaces          50;
        startFace       138905;
    }
    top
    {
        type            patch;
        physicalType    patch;
        nFaces          50;
        startFace       138955;
    }
    aerofoil
    {
        type            wall;
        physicalType    patch;
        nFaces          405;
        startFace       139005;
    }
)

// ************************************************************************* //
