/*--------------------------------*- C++ -*----------------------------------*\
| =========                 |                                                 |
| \\      /  F ield         | OpenFOAM: The Open Source CFD Toolbox           |
|  \\    /   O peration     | Version:  5.x                                   |
|   \\  /    A nd           | Web:      www.OpenFOAM.org                      |
|    \\/     M anipulation  |                                                 |
\*---------------------------------------------------------------------------*/
FoamFile
{
    version     2.0;
    format      binary;
    class       polyBoundaryMesh;
    location    "constant/polyMesh";
    object      boundary;
}
// * * * * * * * * * * * * * * * * * * * * * * * * * * * * * * * * * * * * * //

7
(
    front
    {
        type            empty;
        physicalType    patch;
        nFaces          42191;
        startFace       62986;
    }
    back
    {
        type            empty;
        physicalType    patch;
        nFaces          42191;
        startFace       105177;
    }
    exit
    {
        type            patch;
        physicalType    patch;
        nFaces          50;
        startFace       147368;
    }
    bottom
    {
        type            patch;
        physicalType    patch;
        nFaces          50;
        startFace       147418;
    }
    inlet
    {
        type            patch;
        physicalType    patch;
        nFaces          50;
        startFace       147468;
    }
    top
    {
        type            patch;
        physicalType    patch;
        nFaces          50;
        startFace       147518;
    }
    aerofoil
    {
        type            wall;
        physicalType    patch;
        nFaces          401;
        startFace       147568;
    }
)

// ************************************************************************* //
