/*--------------------------------*- C++ -*----------------------------------*\
| =========                 |                                                 |
| \\      /  F ield         | OpenFOAM: The Open Source CFD Toolbox           |
|  \\    /   O peration     | Version:  5.x                                   |
|   \\  /    A nd           | Web:      www.OpenFOAM.org                      |
|    \\/     M anipulation  |                                                 |
\*---------------------------------------------------------------------------*/
FoamFile
{
    version     2.0;
    format      binary;
    class       polyBoundaryMesh;
    location    "constant/polyMesh";
    object      boundary;
}
// * * * * * * * * * * * * * * * * * * * * * * * * * * * * * * * * * * * * * //

7
(
    front
    {
        type            empty;
        physicalType    patch;
        nFaces          42973;
        startFace       64148;
    }
    back
    {
        type            empty;
        physicalType    patch;
        nFaces          42973;
        startFace       107121;
    }
    exit
    {
        type            patch;
        physicalType    patch;
        nFaces          50;
        startFace       150094;
    }
    bottom
    {
        type            patch;
        physicalType    patch;
        nFaces          50;
        startFace       150144;
    }
    inlet
    {
        type            patch;
        physicalType    patch;
        nFaces          50;
        startFace       150194;
    }
    top
    {
        type            patch;
        physicalType    patch;
        nFaces          50;
        startFace       150244;
    }
    aerofoil
    {
        type            wall;
        physicalType    patch;
        nFaces          423;
        startFace       150294;
    }
)

// ************************************************************************* //
