/*--------------------------------*- C++ -*----------------------------------*\
| =========                 |                                                 |
| \\      /  F ield         | OpenFOAM: The Open Source CFD Toolbox           |
|  \\    /   O peration     | Version:  5.x                                   |
|   \\  /    A nd           | Web:      www.OpenFOAM.org                      |
|    \\/     M anipulation  |                                                 |
\*---------------------------------------------------------------------------*/
FoamFile
{
    version     2.0;
    format      binary;
    class       polyBoundaryMesh;
    location    "constant/polyMesh";
    object      boundary;
}
// * * * * * * * * * * * * * * * * * * * * * * * * * * * * * * * * * * * * * //

7
(
    front
    {
        type            empty;
        physicalType    patch;
        nFaces          40347;
        startFace       60219;
    }
    back
    {
        type            empty;
        physicalType    patch;
        nFaces          40347;
        startFace       100566;
    }
    exit
    {
        type            patch;
        physicalType    patch;
        nFaces          50;
        startFace       140913;
    }
    bottom
    {
        type            patch;
        physicalType    patch;
        nFaces          50;
        startFace       140963;
    }
    inlet
    {
        type            patch;
        physicalType    patch;
        nFaces          50;
        startFace       141013;
    }
    top
    {
        type            patch;
        physicalType    patch;
        nFaces          50;
        startFace       141063;
    }
    aerofoil
    {
        type            wall;
        physicalType    patch;
        nFaces          403;
        startFace       141113;
    }
)

// ************************************************************************* //
