/*--------------------------------*- C++ -*----------------------------------*\
| =========                 |                                                 |
| \\      /  F ield         | OpenFOAM: The Open Source CFD Toolbox           |
|  \\    /   O peration     | Version:  5.x                                   |
|   \\  /    A nd           | Web:      www.OpenFOAM.org                      |
|    \\/     M anipulation  |                                                 |
\*---------------------------------------------------------------------------*/
FoamFile
{
    version     2.0;
    format      binary;
    class       polyBoundaryMesh;
    location    "constant/polyMesh";
    object      boundary;
}
// * * * * * * * * * * * * * * * * * * * * * * * * * * * * * * * * * * * * * //

7
(
    front
    {
        type            empty;
        physicalType    patch;
        nFaces          42309;
        startFace       63148;
    }
    back
    {
        type            empty;
        physicalType    patch;
        nFaces          42309;
        startFace       105457;
    }
    exit
    {
        type            patch;
        physicalType    patch;
        nFaces          50;
        startFace       147766;
    }
    bottom
    {
        type            patch;
        physicalType    patch;
        nFaces          50;
        startFace       147816;
    }
    inlet
    {
        type            patch;
        physicalType    patch;
        nFaces          50;
        startFace       147866;
    }
    top
    {
        type            patch;
        physicalType    patch;
        nFaces          50;
        startFace       147916;
    }
    aerofoil
    {
        type            wall;
        physicalType    patch;
        nFaces          431;
        startFace       147966;
    }
)

// ************************************************************************* //
