/*--------------------------------*- C++ -*----------------------------------*\
| =========                 |                                                 |
| \\      /  F ield         | OpenFOAM: The Open Source CFD Toolbox           |
|  \\    /   O peration     | Version:  5.x                                   |
|   \\  /    A nd           | Web:      www.OpenFOAM.org                      |
|    \\/     M anipulation  |                                                 |
\*---------------------------------------------------------------------------*/
FoamFile
{
    version     2.0;
    format      binary;
    class       polyBoundaryMesh;
    location    "constant/polyMesh";
    object      boundary;
}
// * * * * * * * * * * * * * * * * * * * * * * * * * * * * * * * * * * * * * //

7
(
    front
    {
        type            empty;
        physicalType    patch;
        nFaces          42181;
        startFace       62965;
    }
    back
    {
        type            empty;
        physicalType    patch;
        nFaces          42181;
        startFace       105146;
    }
    exit
    {
        type            patch;
        physicalType    patch;
        nFaces          50;
        startFace       147327;
    }
    bottom
    {
        type            patch;
        physicalType    patch;
        nFaces          50;
        startFace       147377;
    }
    inlet
    {
        type            patch;
        physicalType    patch;
        nFaces          50;
        startFace       147427;
    }
    top
    {
        type            patch;
        physicalType    patch;
        nFaces          50;
        startFace       147477;
    }
    aerofoil
    {
        type            wall;
        physicalType    patch;
        nFaces          413;
        startFace       147527;
    }
)

// ************************************************************************* //
