/*--------------------------------*- C++ -*----------------------------------*\
| =========                 |                                                 |
| \\      /  F ield         | OpenFOAM: The Open Source CFD Toolbox           |
|  \\    /   O peration     | Version:  5.x                                   |
|   \\  /    A nd           | Web:      www.OpenFOAM.org                      |
|    \\/     M anipulation  |                                                 |
\*---------------------------------------------------------------------------*/
FoamFile
{
    version     2.0;
    format      binary;
    class       polyBoundaryMesh;
    location    "constant/polyMesh";
    object      boundary;
}
// * * * * * * * * * * * * * * * * * * * * * * * * * * * * * * * * * * * * * //

7
(
    front
    {
        type            empty;
        physicalType    patch;
        nFaces          42507;
        startFace       63462;
    }
    back
    {
        type            empty;
        physicalType    patch;
        nFaces          42507;
        startFace       105969;
    }
    exit
    {
        type            patch;
        physicalType    patch;
        nFaces          50;
        startFace       148476;
    }
    bottom
    {
        type            patch;
        physicalType    patch;
        nFaces          50;
        startFace       148526;
    }
    inlet
    {
        type            patch;
        physicalType    patch;
        nFaces          50;
        startFace       148576;
    }
    top
    {
        type            patch;
        physicalType    patch;
        nFaces          50;
        startFace       148626;
    }
    aerofoil
    {
        type            wall;
        physicalType    patch;
        nFaces          397;
        startFace       148676;
    }
)

// ************************************************************************* //
