/*--------------------------------*- C++ -*----------------------------------*\
| =========                 |                                                 |
| \\      /  F ield         | OpenFOAM: The Open Source CFD Toolbox           |
|  \\    /   O peration     | Version:  5.x                                   |
|   \\  /    A nd           | Web:      www.OpenFOAM.org                      |
|    \\/     M anipulation  |                                                 |
\*---------------------------------------------------------------------------*/
FoamFile
{
    version     2.0;
    format      binary;
    class       polyBoundaryMesh;
    location    "constant/polyMesh";
    object      boundary;
}
// * * * * * * * * * * * * * * * * * * * * * * * * * * * * * * * * * * * * * //

7
(
    front
    {
        type            empty;
        physicalType    patch;
        nFaces          40265;
        startFace       60081;
    }
    back
    {
        type            empty;
        physicalType    patch;
        nFaces          40265;
        startFace       100346;
    }
    exit
    {
        type            patch;
        physicalType    patch;
        nFaces          50;
        startFace       140611;
    }
    bottom
    {
        type            patch;
        physicalType    patch;
        nFaces          50;
        startFace       140661;
    }
    inlet
    {
        type            patch;
        physicalType    patch;
        nFaces          50;
        startFace       140711;
    }
    top
    {
        type            patch;
        physicalType    patch;
        nFaces          50;
        startFace       140761;
    }
    aerofoil
    {
        type            wall;
        physicalType    patch;
        nFaces          433;
        startFace       140811;
    }
)

// ************************************************************************* //
