/*--------------------------------*- C++ -*----------------------------------*\
| =========                 |                                                 |
| \\      /  F ield         | OpenFOAM: The Open Source CFD Toolbox           |
|  \\    /   O peration     | Version:  5.x                                   |
|   \\  /    A nd           | Web:      www.OpenFOAM.org                      |
|    \\/     M anipulation  |                                                 |
\*---------------------------------------------------------------------------*/
FoamFile
{
    version     2.0;
    format      binary;
    class       polyBoundaryMesh;
    location    "constant/polyMesh";
    object      boundary;
}
// * * * * * * * * * * * * * * * * * * * * * * * * * * * * * * * * * * * * * //

7
(
    front
    {
        type            empty;
        physicalType    patch;
        nFaces          42004;
        startFace       62697;
    }
    back
    {
        type            empty;
        physicalType    patch;
        nFaces          42004;
        startFace       104701;
    }
    exit
    {
        type            patch;
        physicalType    patch;
        nFaces          50;
        startFace       146705;
    }
    bottom
    {
        type            patch;
        physicalType    patch;
        nFaces          50;
        startFace       146755;
    }
    inlet
    {
        type            patch;
        physicalType    patch;
        nFaces          50;
        startFace       146805;
    }
    top
    {
        type            patch;
        physicalType    patch;
        nFaces          50;
        startFace       146855;
    }
    aerofoil
    {
        type            wall;
        physicalType    patch;
        nFaces          418;
        startFace       146905;
    }
)

// ************************************************************************* //
