/*--------------------------------*- C++ -*----------------------------------*\
| =========                 |                                                 |
| \\      /  F ield         | OpenFOAM: The Open Source CFD Toolbox           |
|  \\    /   O peration     | Version:  5.x                                   |
|   \\  /    A nd           | Web:      www.OpenFOAM.org                      |
|    \\/     M anipulation  |                                                 |
\*---------------------------------------------------------------------------*/
FoamFile
{
    version     2.0;
    format      binary;
    class       polyBoundaryMesh;
    location    "constant/polyMesh";
    object      boundary;
}
// * * * * * * * * * * * * * * * * * * * * * * * * * * * * * * * * * * * * * //

7
(
    front
    {
        type            empty;
        physicalType    patch;
        nFaces          42689;
        startFace       63730;
    }
    back
    {
        type            empty;
        physicalType    patch;
        nFaces          42689;
        startFace       106419;
    }
    exit
    {
        type            patch;
        physicalType    patch;
        nFaces          50;
        startFace       149108;
    }
    bottom
    {
        type            patch;
        physicalType    patch;
        nFaces          50;
        startFace       149158;
    }
    inlet
    {
        type            patch;
        physicalType    patch;
        nFaces          50;
        startFace       149208;
    }
    top
    {
        type            patch;
        physicalType    patch;
        nFaces          50;
        startFace       149258;
    }
    aerofoil
    {
        type            wall;
        physicalType    patch;
        nFaces          407;
        startFace       149308;
    }
)

// ************************************************************************* //
