/*--------------------------------*- C++ -*----------------------------------*\
| =========                 |                                                 |
| \\      /  F ield         | OpenFOAM: The Open Source CFD Toolbox           |
|  \\    /   O peration     | Version:  5.x                                   |
|   \\  /    A nd           | Web:      www.OpenFOAM.org                      |
|    \\/     M anipulation  |                                                 |
\*---------------------------------------------------------------------------*/
FoamFile
{
    version     2.0;
    format      binary;
    class       polyBoundaryMesh;
    location    "constant/polyMesh";
    object      boundary;
}
// * * * * * * * * * * * * * * * * * * * * * * * * * * * * * * * * * * * * * //

7
(
    front
    {
        type            empty;
        physicalType    patch;
        nFaces          38099;
        startFace       56849;
    }
    back
    {
        type            empty;
        physicalType    patch;
        nFaces          38099;
        startFace       94948;
    }
    exit
    {
        type            patch;
        physicalType    patch;
        nFaces          50;
        startFace       133047;
    }
    bottom
    {
        type            patch;
        physicalType    patch;
        nFaces          50;
        startFace       133097;
    }
    inlet
    {
        type            patch;
        physicalType    patch;
        nFaces          50;
        startFace       133147;
    }
    top
    {
        type            patch;
        physicalType    patch;
        nFaces          50;
        startFace       133197;
    }
    aerofoil
    {
        type            wall;
        physicalType    patch;
        nFaces          399;
        startFace       133247;
    }
)

// ************************************************************************* //
