/*--------------------------------*- C++ -*----------------------------------*\
| =========                 |                                                 |
| \\      /  F ield         | OpenFOAM: The Open Source CFD Toolbox           |
|  \\    /   O peration     | Version:  5.x                                   |
|   \\  /    A nd           | Web:      www.OpenFOAM.org                      |
|    \\/     M anipulation  |                                                 |
\*---------------------------------------------------------------------------*/
FoamFile
{
    version     2.0;
    format      binary;
    class       polyBoundaryMesh;
    location    "constant/polyMesh";
    object      boundary;
}
// * * * * * * * * * * * * * * * * * * * * * * * * * * * * * * * * * * * * * //

7
(
    front
    {
        type            empty;
        physicalType    patch;
        nFaces          40231;
        startFace       60043;
    }
    back
    {
        type            empty;
        physicalType    patch;
        nFaces          40231;
        startFace       100274;
    }
    exit
    {
        type            patch;
        physicalType    patch;
        nFaces          50;
        startFace       140505;
    }
    bottom
    {
        type            patch;
        physicalType    patch;
        nFaces          50;
        startFace       140555;
    }
    inlet
    {
        type            patch;
        physicalType    patch;
        nFaces          50;
        startFace       140605;
    }
    top
    {
        type            patch;
        physicalType    patch;
        nFaces          50;
        startFace       140655;
    }
    aerofoil
    {
        type            wall;
        physicalType    patch;
        nFaces          407;
        startFace       140705;
    }
)

// ************************************************************************* //
