/*--------------------------------*- C++ -*----------------------------------*\
| =========                 |                                                 |
| \\      /  F ield         | OpenFOAM: The Open Source CFD Toolbox           |
|  \\    /   O peration     | Version:  5.x                                   |
|   \\  /    A nd           | Web:      www.OpenFOAM.org                      |
|    \\/     M anipulation  |                                                 |
\*---------------------------------------------------------------------------*/
FoamFile
{
    version     2.0;
    format      binary;
    class       polyBoundaryMesh;
    location    "constant/polyMesh";
    object      boundary;
}
// * * * * * * * * * * * * * * * * * * * * * * * * * * * * * * * * * * * * * //

7
(
    front
    {
        type            empty;
        physicalType    patch;
        nFaces          42505;
        startFace       63451;
    }
    back
    {
        type            empty;
        physicalType    patch;
        nFaces          42505;
        startFace       105956;
    }
    exit
    {
        type            patch;
        physicalType    patch;
        nFaces          50;
        startFace       148461;
    }
    bottom
    {
        type            patch;
        physicalType    patch;
        nFaces          50;
        startFace       148511;
    }
    inlet
    {
        type            patch;
        physicalType    patch;
        nFaces          50;
        startFace       148561;
    }
    top
    {
        type            patch;
        physicalType    patch;
        nFaces          50;
        startFace       148611;
    }
    aerofoil
    {
        type            wall;
        physicalType    patch;
        nFaces          413;
        startFace       148661;
    }
)

// ************************************************************************* //
