/*--------------------------------*- C++ -*----------------------------------*\
| =========                 |                                                 |
| \\      /  F ield         | OpenFOAM: The Open Source CFD Toolbox           |
|  \\    /   O peration     | Version:  5.x                                   |
|   \\  /    A nd           | Web:      www.OpenFOAM.org                      |
|    \\/     M anipulation  |                                                 |
\*---------------------------------------------------------------------------*/
FoamFile
{
    version     2.0;
    format      binary;
    class       polyBoundaryMesh;
    location    "constant/polyMesh";
    object      boundary;
}
// * * * * * * * * * * * * * * * * * * * * * * * * * * * * * * * * * * * * * //

7
(
    front
    {
        type            empty;
        physicalType    patch;
        nFaces          42166;
        startFace       62946;
    }
    back
    {
        type            empty;
        physicalType    patch;
        nFaces          42166;
        startFace       105112;
    }
    exit
    {
        type            patch;
        physicalType    patch;
        nFaces          50;
        startFace       147278;
    }
    bottom
    {
        type            patch;
        physicalType    patch;
        nFaces          50;
        startFace       147328;
    }
    inlet
    {
        type            patch;
        physicalType    patch;
        nFaces          50;
        startFace       147378;
    }
    top
    {
        type            patch;
        physicalType    patch;
        nFaces          50;
        startFace       147428;
    }
    aerofoil
    {
        type            wall;
        physicalType    patch;
        nFaces          406;
        startFace       147478;
    }
)

// ************************************************************************* //
