/*--------------------------------*- C++ -*----------------------------------*\
| =========                 |                                                 |
| \\      /  F ield         | OpenFOAM: The Open Source CFD Toolbox           |
|  \\    /   O peration     | Version:  5.x                                   |
|   \\  /    A nd           | Web:      www.OpenFOAM.org                      |
|    \\/     M anipulation  |                                                 |
\*---------------------------------------------------------------------------*/
FoamFile
{
    version     2.0;
    format      binary;
    class       polyBoundaryMesh;
    location    "constant/polyMesh";
    object      boundary;
}
// * * * * * * * * * * * * * * * * * * * * * * * * * * * * * * * * * * * * * //

7
(
    front
    {
        type            empty;
        physicalType    patch;
        nFaces          39528;
        startFace       58994;
    }
    back
    {
        type            empty;
        physicalType    patch;
        nFaces          39528;
        startFace       98522;
    }
    exit
    {
        type            patch;
        physicalType    patch;
        nFaces          50;
        startFace       138050;
    }
    bottom
    {
        type            patch;
        physicalType    patch;
        nFaces          50;
        startFace       138100;
    }
    inlet
    {
        type            patch;
        physicalType    patch;
        nFaces          50;
        startFace       138150;
    }
    top
    {
        type            patch;
        physicalType    patch;
        nFaces          50;
        startFace       138200;
    }
    aerofoil
    {
        type            wall;
        physicalType    patch;
        nFaces          396;
        startFace       138250;
    }
)

// ************************************************************************* //
