/*--------------------------------*- C++ -*----------------------------------*\
| =========                 |                                                 |
| \\      /  F ield         | OpenFOAM: The Open Source CFD Toolbox           |
|  \\    /   O peration     | Version:  5.x                                   |
|   \\  /    A nd           | Web:      www.OpenFOAM.org                      |
|    \\/     M anipulation  |                                                 |
\*---------------------------------------------------------------------------*/
FoamFile
{
    version     2.0;
    format      binary;
    class       polyBoundaryMesh;
    location    "constant/polyMesh";
    object      boundary;
}
// * * * * * * * * * * * * * * * * * * * * * * * * * * * * * * * * * * * * * //

7
(
    front
    {
        type            empty;
        physicalType    patch;
        nFaces          44664;
        startFace       66691;
    }
    back
    {
        type            empty;
        physicalType    patch;
        nFaces          44664;
        startFace       111355;
    }
    exit
    {
        type            patch;
        physicalType    patch;
        nFaces          50;
        startFace       156019;
    }
    bottom
    {
        type            patch;
        physicalType    patch;
        nFaces          50;
        startFace       156069;
    }
    inlet
    {
        type            patch;
        physicalType    patch;
        nFaces          50;
        startFace       156119;
    }
    top
    {
        type            patch;
        physicalType    patch;
        nFaces          50;
        startFace       156169;
    }
    aerofoil
    {
        type            wall;
        physicalType    patch;
        nFaces          410;
        startFace       156219;
    }
)

// ************************************************************************* //
