/*--------------------------------*- C++ -*----------------------------------*\
| =========                 |                                                 |
| \\      /  F ield         | OpenFOAM: The Open Source CFD Toolbox           |
|  \\    /   O peration     | Version:  5.x                                   |
|   \\  /    A nd           | Web:      www.OpenFOAM.org                      |
|    \\/     M anipulation  |                                                 |
\*---------------------------------------------------------------------------*/
FoamFile
{
    version     2.0;
    format      binary;
    class       polyBoundaryMesh;
    location    "constant/polyMesh";
    object      boundary;
}
// * * * * * * * * * * * * * * * * * * * * * * * * * * * * * * * * * * * * * //

7
(
    front
    {
        type            empty;
        physicalType    patch;
        nFaces          42559;
        startFace       63528;
    }
    back
    {
        type            empty;
        physicalType    patch;
        nFaces          42559;
        startFace       106087;
    }
    exit
    {
        type            patch;
        physicalType    patch;
        nFaces          50;
        startFace       148646;
    }
    bottom
    {
        type            patch;
        physicalType    patch;
        nFaces          50;
        startFace       148696;
    }
    inlet
    {
        type            patch;
        physicalType    patch;
        nFaces          50;
        startFace       148746;
    }
    top
    {
        type            patch;
        physicalType    patch;
        nFaces          50;
        startFace       148796;
    }
    aerofoil
    {
        type            wall;
        physicalType    patch;
        nFaces          421;
        startFace       148846;
    }
)

// ************************************************************************* //
