/*--------------------------------*- C++ -*----------------------------------*\
| =========                 |                                                 |
| \\      /  F ield         | OpenFOAM: The Open Source CFD Toolbox           |
|  \\    /   O peration     | Version:  5.x                                   |
|   \\  /    A nd           | Web:      www.OpenFOAM.org                      |
|    \\/     M anipulation  |                                                 |
\*---------------------------------------------------------------------------*/
FoamFile
{
    version     2.0;
    format      binary;
    class       polyBoundaryMesh;
    location    "constant/polyMesh";
    object      boundary;
}
// * * * * * * * * * * * * * * * * * * * * * * * * * * * * * * * * * * * * * //

7
(
    front
    {
        type            empty;
        physicalType    patch;
        nFaces          43632;
        startFace       65149;
    }
    back
    {
        type            empty;
        physicalType    patch;
        nFaces          43632;
        startFace       108781;
    }
    exit
    {
        type            patch;
        physicalType    patch;
        nFaces          50;
        startFace       152413;
    }
    bottom
    {
        type            patch;
        physicalType    patch;
        nFaces          50;
        startFace       152463;
    }
    inlet
    {
        type            patch;
        physicalType    patch;
        nFaces          50;
        startFace       152513;
    }
    top
    {
        type            patch;
        physicalType    patch;
        nFaces          50;
        startFace       152563;
    }
    aerofoil
    {
        type            wall;
        physicalType    patch;
        nFaces          398;
        startFace       152613;
    }
)

// ************************************************************************* //
