/*--------------------------------*- C++ -*----------------------------------*\
| =========                 |                                                 |
| \\      /  F ield         | OpenFOAM: The Open Source CFD Toolbox           |
|  \\    /   O peration     | Version:  5.x                                   |
|   \\  /    A nd           | Web:      www.OpenFOAM.org                      |
|    \\/     M anipulation  |                                                 |
\*---------------------------------------------------------------------------*/
FoamFile
{
    version     2.0;
    format      binary;
    class       polyBoundaryMesh;
    location    "constant/polyMesh";
    object      boundary;
}
// * * * * * * * * * * * * * * * * * * * * * * * * * * * * * * * * * * * * * //

7
(
    front
    {
        type            empty;
        physicalType    patch;
        nFaces          43869;
        startFace       65491;
    }
    back
    {
        type            empty;
        physicalType    patch;
        nFaces          43869;
        startFace       109360;
    }
    exit
    {
        type            patch;
        physicalType    patch;
        nFaces          50;
        startFace       153229;
    }
    bottom
    {
        type            patch;
        physicalType    patch;
        nFaces          50;
        startFace       153279;
    }
    inlet
    {
        type            patch;
        physicalType    patch;
        nFaces          50;
        startFace       153329;
    }
    top
    {
        type            patch;
        physicalType    patch;
        nFaces          50;
        startFace       153379;
    }
    aerofoil
    {
        type            wall;
        physicalType    patch;
        nFaces          425;
        startFace       153429;
    }
)

// ************************************************************************* //
